Header
  Include Path  ""
  Mesh DB(2)  "." "."
  Results Directory  ""
End

Simulation
  BDF Order = 2.000000000000000e+00
  Coordinate Mapping(3) = 1 2 3
  Coordinate System = "Cartesian"
  Max Output Level = 5
  Output File = "case.dat"
  Output Intervals(1) = 100
  Post File = "case.vtu"
  Simulation Type = "Transient"
  Solver Input File = "case.sif"
  Steady State Max Iterations = 10
  Timestep Sizes(1) = 1
  Timestep intervals(1) = 10000
  Timestepping Method = "BDF"
End

Constants
  Boltzmann Constant = 1.380649000000000e-23
  Gravity(4) = 0 -1 0 9.820000000000000e+00
  Permeability of Vacuum = 1.256637060000000e-06
  Permittivity of Vacuum = 8.854187810000001e-12
  Stefan Boltzmann = 5.670374419000000e-08
  Unit Charge = 1.602176600000000e-19
End

Solver 1
  BiCGstabl polynomial degree = 2
  Equation = "Heat Equation"
  Exec Solver = "Always"
  Linear System Abort Not Converged = False
  Linear System Convergence Tolerance = 1.000000000000000e-10
  Linear System ILUT Tolerance = 1.000000000000000e-03
  Linear System Iterative Method = "BiCGStab"
  Linear System Max Iterations = 500
  Linear System Preconditioning = "ILU0"
  Linear System Residual Output = 10
  Linear System Solver = "Iterative"
  Nonlinear System Convergence Tolerance = 1.000000000000000e-07
  Nonlinear System Max Iterations = 20
  Nonlinear System Newton After Iterations = 3
  Nonlinear System Newton After Tolerance = 1.000000000000000e-03
  Nonlinear System Relaxation Factor = 1
  Optimize Bandwidth = True
  Procedure(2) = ""HeatSolve"" ""HeatSolver""
  Stabilize = True
  Steady State Convergence Tolerance = 1.000000000000000e-05
  Variable = "Temperature"
End

Equation 1
  Active Solvers(1) = 1
  Name = "Equation 1"
End

Material 1
  Density = 7.850000000000000e+03
  Heat Capacity = 9.760000000000000e+02
  Heat Conductivity = 3.720000000000000e+01
  Heat expansion Coefficient = 1.200000000000000e-05
  Name = "Steel (alloy - generic)"
  Poisson ratio = 2.850000000000000e-01
  Sound speed = 5.100000000000000e+03
  Youngs modulus = 2.000000000000000e+11
End

Body 1
  Equation = 1
  Initial condition = 1
  Material = 1
  Name = "Body 1"
  Target Bodies(1) = 1
End

Initial Condition 1
  Name = "InitialCondition 1"
  Temperature = 200
End

Boundary Condition 1
  Heat Flux = 100000
  Heat Flux BC = True
  Name = "BoundaryCondition 1"
  Target Boundaries(2) = 1 2
End